24
Lattice="5.105310960166873 0.0 0.0 0.0 8.842657971447272 0.0 0.0 0.0 6.252703415323646" Properties=species:S:1:pos:R:3 pbc="T T T"
Cu       0.00000000       0.00000000       0.00000000 
Cu       0.00000000       1.47377633       2.08423447 
Cu       0.00000000       2.94755266       4.16846894 
Cu       1.27632774       0.73688816       4.16846894 
Cu       1.27632774       2.21066449      -0.00000000 
Cu       1.27632774       3.68444082       2.08423447 
Cu       2.55265548      -0.00000000      -0.00000000 
Cu       2.55265548       1.47377633       2.08423447 
Cu       2.55265548       2.94755266       4.16846894 
Cu       3.82898322       0.73688816       4.16846894 
Cu       3.82898322       2.21066449      -0.00000000 
Cu       3.82898322       3.68444082       2.08423447 
Cu       0.00000000       4.42132899      -0.00000000 
Cu       0.00000000       5.89510531       2.08423447 
Cu       0.00000000       7.36888164       4.16846894 
Cu       1.27632774       5.15821715       4.16846894 
Cu       1.27632774       6.63199348      -0.00000000 
Cu       1.27632774       8.10576981       2.08423447 
Cu       2.55265548       4.42132899      -0.00000000 
Cu       2.55265548       5.89510531       2.08423447 
Cu       2.55265548       7.36888164       4.16846894 
Cu       3.82898322       5.15821715       4.16846894 
Cu       3.82898322       6.63199348      -0.00000000 
Cu       3.82898322       8.10576981       2.08423447 
